Simulacoes/57/06 - EE/ieee57_2_0200_EE.txt
================================================================================= 
=== UFF - Doutorado em Computação - Aplicaçoes em Sistemas de Potencia        === 
=== ESTIMADOR DE ESTADO MÍNIMOS QUADRADOS PONDERADOS INCLUINDO MEDIDAS DE PMU === 
=== Desenvolvido por: Rui Menezes de Moraes - 2009                            === 
================================================================================= 
Arquivo de medidores:          F:\Documents\Uff\Artigos\SimSEP\VERSAO WELDAN V2\Codigos\Med\ieee57_2_0200.med
Arquivo do sistema:            F:\Documents\Uff\Artigos\SimSEP\VERSAO WELDAN V2\Codigos\Carga\ieee57_2_0200.txt
Tolerância entre iteraçoes:     1.00e-04
Limite de iteraçoes:           100

--- DADOS DA REDE --------------------------------------------------------------- 
Data do caso:                  08/25/93
Origem:                        UW ARCHIVE          
MVA base:                      100
Ano:                           1961
Estação:                       W
Identificação:                 IEEE 57 Bus Test Case
Número de barras:              57 
Número de ramos:               80 
Referência na barra:           1

--- TELEMEDIDAS ------------------------------------------------------------------
    Tipo 1 = Fluxo de potencia ativa        Tipo  6 = Módulo da tensão            
    Tipo 2 = Injeção de potencia ativa      Tipo  7 = Corrente de ramo (real)     
    Tipo 3 = Ângulo de fase da tensão       Tipo  8 = Corrente de ramo (imag)     
    Tipo 4 = Fluxo de potencia reativa      Tipo  9 = Injeção de corrente (real)  
    Tipo 5 = Injeção de potencia reativa    Tipo 10 = Injeção de corrente (imag)  
----------------------------------------------------------------------------------
   N    D    P TP  PN ST   Exa   FS       DP      V_Ref      V_Med          E(%) 
----------------------------------------------------------------------------------
   1    0    1  6   0  0 0.015 01.1  0.00520   +1.04000   +1.05399     +1.345192 
   2    0    2  6   0  0 0.015 01.1  0.00513   +1.02629   +1.02680     +0.049694 
   3    0    3  6   0  0 0.015 01.1  0.00508   +1.01537   +1.02928     +1.369944 
   4    0    4  6   0  0 0.015 01.1  0.00506   +1.01254   +1.00562     -0.683430 
   5    0    5  6   0  0 0.015 01.1  0.00505   +1.01000   +1.01082     +0.081188 
   6    0    6  6   0  0 0.015 01.1  0.00505   +1.01067   +1.02314     +1.233835 
   7    0    7  6   0  0 0.015 01.1  0.00505   +1.01006   +1.00141     -0.856385 
   8    0    8  6   0  0 0.015 01.1  0.00502   +1.00500   +1.01485     +0.980100 
   9    0    9  6   0  0 0.015 01.1  0.00502   +1.00452   +0.99362     -1.085095 
  10    0   10  6   0  0 0.015 01.1  0.00504   +1.00867   +1.00678     -0.187375 
  11    0   11  6   0  0 0.015 01.1  0.00502   +1.00508   +1.01640     +1.126279 
  12    0   12  6   0  0 0.015 01.1  0.00507   +1.01500   +1.02122     +0.612808 
  13    0   13  6   0  0 0.015 01.1  0.00503   +1.00538   +1.00529     -0.008952 
  14    0   14  6   0  0 0.015 01.1  0.00502   +1.00403   +1.00734     +0.329671 
  15    0   15  6   0  0 0.015 01.1  0.00506   +1.01165   +0.99883     -1.267237 
  16    0   16  6   0  0 0.015 01.1  0.00509   +1.01881   +1.01091     -0.775414 
  17    0   17  6   0  0 0.015 01.1  0.00513   +1.02642   +1.01182     -1.422420 
  18    0   18  6   0  0 0.015 01.1  0.00530   +1.05947   +1.07049     +1.040143 
  19    0   19  6   0  0 0.015 01.1  0.00526   +1.05121   +1.03591     -1.455466 
  20    0   20  6   0  0 0.015 01.1  0.00524   +1.04779   +1.04937     +0.150794 
  21    0   21  6   0  0 0.015 01.1  0.00544   +1.08773   +1.07532     -1.140908 
  22    0   22  6   0  0 0.015 01.1  0.00544   +1.08716   +1.09003     +0.263991 
  23    0   23  6   0  0 0.015 01.1  0.00544   +1.08752   +1.09151     +0.366890 
  24    0   24  6   0  0 0.015 01.1  0.00548   +1.09571   +1.10383     +0.741072 
  25    0   25  6   0  0 0.015 01.1  0.00564   +1.12863   +1.12220     -0.569717 
  26    0   26  6   0  0 0.015 01.1  0.00522   +1.04447   +1.05752     +1.249438 
  27    0   27  6   0  0 0.015 01.1  0.00524   +1.04775   +1.05662     +0.846576 
  28    0   28  6   0  0 0.015 01.1  0.00526   +1.05111   +1.03853     -1.196830 
  29    0   29  6   0  0 0.015 01.1  0.00527   +1.05481   +1.04788     -0.656990 
  30    0   30  6   0  0 0.015 01.1  0.00562   +1.12351   +1.13725     +1.222953 
  31    0   31  6   0  0 0.015 01.1  0.00557   +1.11391   +1.10092     -1.166162 
  32    0   32  6   0  0 0.015 01.1  0.00553   +1.10553   +1.11514     +0.869266 
  33    0   33  6   0  0 0.015 01.1  0.00553   +1.10525   +1.09207     -1.192490 
  34    0   34  6   0  0 0.015 01.1  0.00540   +1.07992   +1.08860     +0.803763 
  35    0   35  6   0  0 0.015 01.1  0.00540   +1.07954   +1.08479     +0.486318 
  36    0   36  6   0  0 0.015 01.1  0.00540   +1.07960   +1.08845     +0.819748 
  37    0   37  6   0  0 0.015 01.1  0.00541   +1.08093   +1.09494     +1.296106 
  38    0   38  6   0  0 0.015 01.1  0.00543   +1.08633   +1.07580     -0.969319 
  39    0   39  6   0  0 0.015 01.1  0.00540   +1.08031   +1.06477     -1.438476 
  40    0   40  6   0  0 0.015 01.1  0.00539   +1.07784   +1.08863     +1.001076 
  41    0   41  6   0  0 0.015 01.1  0.00533   +1.06593   +1.06507     -0.080681 
  42    0   42  6   0  0 0.015 01.1  0.00534   +1.06712   +1.05460     -1.173251 
  43    0   43  6   0  0 0.015 01.1  0.00527   +1.05355   +1.04056     -1.232974 
  44    0   44  6   0  0 0.015 01.1  0.00539   +1.07845   +1.06600     -1.154435 
  45    0   45  6   0  0 0.015 01.1  0.00531   +1.06275   +1.05216     -0.996471 
  46    0   46  6   0  0 0.015 01.1  0.00553   +1.10503   +1.12069     +1.417156 
  47    0   47  6   0  0 0.015 01.1  0.00548   +1.09538   +1.08835     -0.641786 
  48    0   48  6   0  0 0.015 01.1  0.00547   +1.09320   +1.09645     +0.297292 
  49    0   49  6   0  0 0.015 01.1  0.00549   +1.09835   +1.10996     +1.057040 
  50    0   50  6   0  0 0.015 01.1  0.00546   +1.09218   +1.08382     -0.765442 
  51    0   51  6   0  0 0.015 01.1  0.00544   +1.08880   +1.09622     +0.681484 
  52    0   52  6   0  0 0.015 01.1  0.00530   +1.05976   +1.05661     -0.297237 
  53    0   53  6   0  0 0.015 01.1  0.00532   +1.06327   +1.05723     -0.568059 
  54    0   54  6   0  0 0.015 01.1  0.00532   +1.06377   +1.06868     +0.461566 
  55    0   55  6   0  0 0.015 01.1  0.00533   +1.06588   +1.06242     -0.324614 
  56    0   56  6   0  0 0.015 01.1  0.00536   +1.07236   +1.06012     -1.141408 
  57    0   57  6   0  0 0.015 01.1  0.00537   +1.07417   +1.08959     +1.435527 
  58    0    1  2   0  0 0.020 01.0  0.02912   -4.10812   -4.10493     -0.077651 
  59    0    2  2   0  0 0.020 01.0  0.00176   -0.00400   -0.00392     -2.000000 
  60    0    3  2   0  0 0.020 01.0  0.00438   +0.39700   +0.39240     -1.158690 
  61    0    4  2   0  0 0.020 01.0  0.00173   +0.00000   -0.00315     +0.000000 
  62    0    5  2   0  0 0.020 01.0  0.00185   -0.01800   -0.01396    -22.444444 
  63    0    6  2   0  0 0.020 01.0  0.00243   -0.10500   -0.10839     +3.228571 
  64    0    7  2   0  0 0.020 01.0  0.00173   +0.00000   +0.00040     +0.000000 
  65    0    8  2   0  0 0.020 01.0  0.03033   +4.29000   +4.29937     +0.218415 
  66    0    9  2   0  0 0.020 01.0  0.00230   -0.08500   -0.07861     -7.517647 
  67    0   10  2   0  0 0.020 01.0  0.00253   -0.11900   -0.12249     +2.932773 
  68    0   11  2   0  0 0.020 01.0  0.00173   +0.00000   -0.00244     +0.000000 
  69    0   12  2   0  0 0.020 01.0  0.00728   +0.83200   +0.82370     -0.997596 
  70    0   13  2   0  0 0.020 01.0  0.00190   -0.02500   -0.02434     -2.640000 
  71    0   14  2   0  0 0.020 01.0  0.00183   -0.01500   -0.01634     +8.933333 
  72    0   15  2   0  0 0.020 01.0  0.00194   -0.03099   -0.03395     +9.551468 
  73    0   16  2   0  0 0.020 01.0  0.00213   -0.06000   -0.05774     -3.766667 
  74    0   17  2   0  0 0.020 01.0  0.00213   -0.05900   -0.06205     +5.169492 
  75    0   18  2   0  0 0.020 01.0  0.00199   -0.03800   -0.03250    -14.473684 
  76    0   19  2   0  0 0.020 01.0  0.00177   -0.00500   -0.00503     +0.600000 
  77    0   20  2   0  0 0.020 01.0  0.00175   -0.00300   -0.00376    +25.333333 
  78    0   21  2   0  0 0.020 01.0  0.00173   -0.00000   +0.00070     +0.000000 
  79    0   22  2   0  0 0.020 01.0  0.00173   +0.00000   +0.00118     +0.000000 
  80    0   23  2   0  0 0.020 01.0  0.00179   -0.00900   -0.00570    -36.666667 
  81    0   24  2   0  0 0.020 01.0  0.00173   +0.00000   +0.00396     +0.000000 
  82    0   25  2   0  0 0.020 01.0  0.00179   -0.00900   -0.01266    +40.666667 
  83    0   26  2   0  0 0.020 01.0  0.00173   -0.00000   -0.00427     +0.000000 
  84    0   27  2   0  0 0.020 01.0  0.00182   -0.01300   -0.01504    +15.692308 
  85    0   28  2   0  0 0.020 01.0  0.00177   -0.00600   -0.00486    -19.000000 
  86    0   29  2   0  0 0.020 01.0  0.00189   -0.02400   -0.02538     +5.750000 
  87    0   30  2   0  0 0.020 01.0  0.00177   -0.00500   -0.00049    -90.200000 
  88    0   31  2   0  0 0.020 01.0  0.00179   -0.00800   -0.01275    +59.375000 
  89    0   32  2   0  0 0.020 01.0  0.00175   -0.00200   +0.00318   -259.000000 
  90    0   33  2   0  0 0.020 01.0  0.00177   -0.00500   -0.00323    -35.400000 
  91    0   34  2   0  0 0.020 01.0  0.00173   +0.00000   +0.00122     +0.000000 
  92    0   35  2   0  0 0.020 01.0  0.00179   -0.00800   -0.01177    +47.125000 
  93    0   36  2   0  0 0.020 01.0  0.00173   -0.00000   -0.00490     +0.000000 
  94    0   37  2   0  0 0.020 01.0  0.00173   +0.00000   +0.00075     +0.000000 
  95    0   38  2   0  0 0.020 01.0  0.00187   -0.02000   -0.02526    +26.300000 
  96    0   39  2   0  0 0.020 01.0  0.00173   -0.00000   +0.00220     +0.000000 
  97    0   40  2   0  0 0.020 01.0  0.00173   -0.00000   -0.00297     +0.000000 
  98    0   41  2   0  0 0.020 01.0  0.00179   -0.00900   -0.01163    +29.222222 
  99    0   42  2   0  0 0.020 01.0  0.00180   -0.01000   -0.00505    -49.500000 
 100    0   43  2   0  0 0.020 01.0  0.00175   -0.00300   -0.00635   +111.666667 
 101    0   44  2   0  0 0.020 01.0  0.00185   -0.01700   -0.01369    -19.470588 
 102    0   45  2   0  0 0.020 01.0  0.00173   -0.00000   -0.00478     +0.000000 
 103    0   46  2   0  0 0.020 01.0  0.00173   +0.00000   -0.00198     +0.000000 
 104    0   47  2   0  0 0.020 01.0  0.00201   -0.04200   -0.03636    -13.428571 
 105    0   48  2   0  0 0.020 01.0  0.00173   +0.00000   -0.00242     +0.000000 
 106    0   49  2   0  0 0.020 01.0  0.00190   -0.02500   -0.02931    +17.240000 
 107    0   50  2   0  0 0.020 01.0  0.00193   -0.02900   -0.02776     -4.275862 
 108    0   51  2   0  0 0.020 01.0  0.00190   -0.02500   -0.02334     -6.640000 
 109    0   52  2   0  0 0.020 01.0  0.00178   -0.00700   -0.00300    -57.142857 
 110    0   53  2   0  0 0.020 01.0  0.00192   -0.02800   -0.02342    -16.357143 
 111    0   54  2   0  0 0.020 01.0  0.00177   -0.00600   -0.01075    +79.166667 
 112    0   55  2   0  0 0.020 01.0  0.00180   -0.01000   -0.00720    -28.000000 
 113    0   56  2   0  0 0.020 01.0  0.00181   -0.01100   -0.00711    -35.363636 
 114    0   57  2   0  0 0.020 01.0  0.00179   -0.00900   -0.00920     +2.222222 
 115    0    1  5   0  0 0.020 01.0  0.01572   +2.09809   +2.05801     -1.910309 
 116    0    2  5   0  0 0.020 01.0  0.00369   -0.29300   -0.30205     +3.088737 
 117    0    3  5   0  0 0.020 01.0  0.00259   -0.12899   -0.13365     +3.612683 
 118    0    4  5   0  0 0.020 01.0  0.00173   -0.00000   +0.00289     +0.000000 
 119    0    5  5   0  0 0.020 01.0  0.00177   -0.00600   -0.00699    +16.500000 
 120    0    6  5   0  0 0.020 01.0  0.00229   -0.08299   -0.07850     -5.410290 
 121    0    7  5   0  0 0.020 01.0  0.00173   +0.00000   -0.00366     +0.000000 
 122    0    8  5   0  0 0.020 01.0  0.00663   -0.73471   -0.72544     -1.261722 
 123    0    9  5   0  0 0.020 01.0  0.00205   -0.04798   -0.05230     +9.003752 
 124    0   10  5   0  0 0.020 01.0  0.00205   -0.04800   -0.04383     -8.687500 
 125    0   11  5   0  0 0.020 01.0  0.00173   -0.00000   +0.00047     +0.000000 
 126    0   12  5   0  0 0.020 01.0  0.00210   -0.05473   -0.04893    -10.597479 
 127    0   13  5   0  0 0.020 01.0  0.00175   -0.00300   -0.00747   +149.000000 
 128    0   14  5   0  0 0.020 01.0  0.00178   -0.00700   -0.00237    -66.142857 
 129    0   15  5   0  0 0.020 01.0  0.00178   -0.00700   -0.00850    +21.428571 
 130    0   16  5   0  0 0.020 01.0  0.00176   -0.00400   -0.00857   +114.250000 
 131    0   17  5   0  0 0.020 01.0  0.00181   -0.01100   -0.00595    -45.909091 
 132    0   18  5   0  0 0.020 01.0  0.00183   -0.01400   -0.01236    -11.714286 
 133    0   19  5   0  0 0.020 01.0  0.00174   -0.00100   -0.00183    +83.000000 
 134    0   20  5   0  0 0.020 01.0  0.00174   -0.00100   +0.00001   -101.000000 
 135    0   21  5   0  0 0.020 01.0  0.00173   +0.00000   -0.00159     +0.000000 
 136    0   22  5   0  0 0.020 01.0  0.00173   +0.00000   -0.00294     +0.000000 
 137    0   23  5   0  0 0.020 01.0  0.00175   -0.00300   -0.00786   +162.000000 
 138    0   24  5   0  0 0.020 01.0  0.00173   +0.00000   -0.00360     +0.000000 
 139    0   25  5   0  0 0.020 01.0  0.00176   -0.00400   -0.00534    +33.500000 
 140    0   26  5   0  0 0.020 01.0  0.00173   -0.00000   +0.00392     +0.000000 
 141    0   27  5   0  0 0.020 01.0  0.00174   -0.00100   -0.00161    +61.000000 
 142    0   28  5   0  0 0.020 01.0  0.00175   -0.00300   -0.00155    -48.333333 
 143    0   29  5   0  0 0.020 01.0  0.00176   -0.00400   -0.00518    +29.500000 
 144    0   30  5   0  0 0.020 01.0  0.00175   -0.00300   +0.00055   -118.333333 
 145    0   31  5   0  0 0.020 01.0  0.00176   -0.00400   -0.00119    -70.250000 
 146    0   32  5   0  0 0.020 01.0  0.00174   -0.00100   -0.00491   +391.000000 
 147    0   33  5   0  0 0.020 01.0  0.00175   -0.00300   -0.00729   +143.000000 
 148    0   34  5   0  0 0.020 01.0  0.00173   +0.00000   +0.00167     +0.000000 
 149    0   35  5   0  0 0.020 01.0  0.00176   -0.00400   -0.00529    +32.250000 
 150    0   36  5   0  0 0.020 01.0  0.00173   +0.00000   -0.00408     +0.000000 
 151    0   37  5   0  0 0.020 01.0  0.00173   -0.00000   +0.00129     +0.000000 
 152    0   38  5   0  0 0.020 01.0  0.00180   -0.01000   -0.00869    -13.100000 
 153    0   39  5   0  0 0.020 01.0  0.00173   +0.00000   +0.00428     +0.000000 
 154    0   40  5   0  0 0.020 01.0  0.00173   +0.00000   +0.00110     +0.000000 
 155    0   41  5   0  0 0.020 01.0  0.00176   -0.00400   -0.00415     +3.750000 
 156    0   42  5   0  0 0.020 01.0  0.00177   -0.00600   -0.00518    -13.666667 
 157    0   43  5   0  0 0.020 01.0  0.00174   -0.00100   +0.00403   -503.000000 
 158    0   44  5   0  0 0.020 01.0  0.00175   -0.00300   -0.00280     -6.666667 
 159    0   45  5   0  0 0.020 01.0  0.00173   +0.00000   -0.00157     +0.000000 
 160    0   46  5   0  0 0.020 01.0  0.00173   -0.00000   +0.00502     +0.000000 
 161    0   47  5   0  0 0.020 01.0  0.00184   -0.01600   -0.01057    -33.937500 
 162    0   48  5   0  0 0.020 01.0  0.00173   +0.00000   +0.00412     +0.000000 
 163    0   49  5   0  0 0.020 01.0  0.00181   -0.01200   -0.00937    -21.916667 
 164    0   50  5   0  0 0.020 01.0  0.00183   -0.01500   -0.01319    -12.066667 
 165    0   51  5   0  0 0.020 01.0  0.00178   -0.00700   -0.00451    -35.571429 
 166    0   52  5   0  0 0.020 01.0  0.00175   -0.00300   -0.00367    +22.333333 
 167    0   53  5   0  0 0.020 01.0  0.00183   -0.01400   -0.01510     +7.857143 
 168    0   54  5   0  0 0.020 01.0  0.00175   -0.00200   -0.00496   +148.000000 
 169    0   55  5   0  0 0.020 01.0  0.00177   -0.00500   -0.00095    -81.000000 
 170    0   56  5   0  0 0.020 01.0  0.00175   -0.00300   +0.00165   -155.000000 
 171    0   57  5   0  0 0.020 01.0  0.00175   -0.00300   +0.00172   -157.333333 
 172    1    2  1   0  0 0.020 01.0  0.00993   -1.22985   -1.25331     +1.907550 
 173    2    3  1   0  0 0.020 01.0  0.01008   -1.25172   -1.27844     +2.134663 
 174    3    4  1   0  0 0.020 01.0  0.00941   -1.15141   -1.17039     +1.648414 
 175    4    5  1   0  0 0.020 01.0  0.00492   -0.47846   -0.47765     -0.169293 
 176    4    6  1   0  0 0.020 01.0  0.00662   -0.73372   -0.75082     +2.330589 
 177    6    7  1   0  0 0.020 01.0  0.00593   -0.63016   -0.64760     +2.767551 
 178    6    8  1   0  0 0.020 01.0  0.00679   -0.75875   -0.77539     +2.193081 
 179    8    9  1   0  0 0.020 01.0  0.01863   +2.53424   +2.54625     +0.473909 
 180    9   10  1   0  0 0.020 01.0  0.00514   +0.51125   +0.49756     -2.677751 
 181    9   11  1   0  0 0.020 01.0  0.00674   +0.75042   +0.75681     +0.851523 
 182    9   12  1   0  0 0.020 01.0  0.00445   +0.40820   +0.41023     +0.497305 
 183    9   13  1   0  0 0.020 01.0  0.00652   +0.71777   +0.70110     -2.322471 
 184   13   14  1   0  0 0.020 01.0  0.00559   +0.57915   +0.57047     -1.498748 
 185   13   15  1   0  0 0.020 01.0  0.00610   +0.65433   +0.64888     -0.832913 
 186    1   15  1   0  0 0.020 01.0  0.01213   -1.55933   -1.58649     +1.741774 
 187    1   16  1   0  0 0.020 01.0  0.00620   -0.66933   -0.66043     -1.329688 
 188    1   17  1   0  0 0.020 01.0  0.00606   -0.64961   -0.65159     +0.304798 
 189    3   15  1   0  0 0.020 01.0  0.00333   +0.24000   +0.23036     -4.016667 
 190    4   18  1   0  0 0.020 01.0  0.00186   +0.01933   +0.02136    +10.501811 
 191    4   18  1   0  0 0.020 01.0  0.00190   +0.02474   +0.02908    +17.542441 
 192    5    6  1   0  0 0.020 01.0  0.00517   -0.51485   -0.52601     +2.167622 
 193    7    8  1   0  0 0.020 01.0  0.00815   -0.96222   -0.94703     -1.578641 
 194   10   12  1   0  0 0.020 01.0  0.00351   +0.26695   +0.26175     -1.947930 
 195   11   13  1   0  0 0.020 01.0  0.00619   +0.66902   +0.65134     -2.642671 
 196   12   13  1   0  0 0.020 01.0  0.00181   -0.01162   -0.01129     -2.839931 
 197   12   16  1   0  0 0.020 01.0  0.00682   +0.76291   +0.78071     +2.333172 
 198   12   17  1   0  0 0.020 01.0  0.00668   +0.74231   +0.75311     +1.454918 
 199   14   15  1   0  0 0.020 01.0  0.00554   +0.57117   +0.56801     -0.553250 
...
Número de medidores SCADA:     491
Número de PMUs:                0
Número de medidas das PMUs:    0
----------------------------------------------------------------------------------

Não há medidas de ângulo.
Não há medidores desabilitados.
============================== Estado Estimado ===================================
                 Barra     Mod(pu)    Ang(graus)              
----------------------------------------------------------------------------------
                    1            1.0393              0.00        
                    2            1.0258              2.25        
                    3            1.0151              9.21        
                    4            1.0124             11.85        
                    5            1.0103             16.34        
                    6            1.0111             18.61        
                    7            1.0105             22.41        
                    8            1.0054             26.52        
                    9            1.0049             19.04        
                   10            1.0089             13.94        
                   11            1.0054             15.09        
                   12            1.0152             11.89        
                   13            1.0055             12.09        
                   14            1.0042             10.56        
                   15            1.0115              8.51        
                   16            1.0186              8.25        
                   17            1.0260              4.14        
                   18            1.0568             11.31        
                   19            1.0487             11.31        
                   20            1.0464             11.40        
                   21            1.0878             11.48        
                   22            1.0874             11.50        
                   23            1.0878             11.66        
                   24            1.0963             14.33        
                   25            1.1293             13.24        
                   26            1.0453             14.84        
                   27            1.0482             18.80        
                   28            1.0516             20.35        
                   29            1.0553             21.32        
                   30            1.1244             13.05        
                   31            1.1134             12.57        
                   32            1.1052             12.22        
                   33            1.1050             12.22        
                   34            1.0802             11.71        
                   35            1.0797             11.66        
                   36            1.0797             11.65        
                   37            1.0812             11.55        
                   38            1.0867             11.21        
                   39            1.0805             11.59        
                   40            1.0780             11.75        
                   41            1.0662             14.02        
                   42            1.0682             13.27        
                   43            1.0542             14.76        
                   44            1.0789             10.66        
                   45            1.0629              9.54        
                   46            1.1054             10.60        
                   47            1.0960             10.82        
                   48            1.0937             11.01        
                   49            1.0988             11.39        
                   50            1.0927             12.10        
                   51            1.0891             13.54        
                   52            1.0605             20.30        
                   53            1.0641             19.77        
                   54            1.0643             19.36        
                   55            1.0667             19.05        
                   56            1.0733             12.52        
                   57            1.0755             12.10        
----------------------------------------------------------------------------------
Convergiu em:    3 iteraçoes. 
----------------------------------------------------------------------------------
--- RESIDUOS NORMALIZADOS --------------------------------------------------------
   N    D    P  TP      Real     Medido   Estimado      Med-Est        rn 
----------------------------------------------------------------------------------
 270    4   18  4    -0.0293    -0.0269    -0.0519  +2.4986e-02      0.603 
 430   18    4  4    +0.0299    +0.0314    +0.0532  -2.1819e-02      0.528 
 132    0   18  5    -0.0140    -0.0124    -0.0250  +1.2609e-02      0.408 
 116    0    2  5    -0.2930    -0.3020    -0.2892  -1.2810e-02      0.322 
 173    2    3  1    -1.2517    -1.2784    -1.2539  -2.4584e-02      0.254 
  68    0   11  2    +0.0000    -0.0024    -0.0072  +4.7690e-03      0.235 
 172    1    2  1    -1.2299    -1.2533    -1.2315  -2.1795e-02      0.234 
 183    9   13  1    +0.7178    +0.7011    +0.7197  -1.8585e-02      0.234 
 186    1   15  1    -1.5593    -1.5865    -1.5621  -2.4439e-02      0.230 
 428   17    1  4    -0.2638    -0.2730    -0.2604  -1.2598e-02      0.230 
  72    0   15  2    -0.0310    -0.0340    -0.0297  -4.2370e-03      0.224 
 336    6    4  1    +0.7594    +0.7429    +0.7607  -1.7849e-02      0.222 
 334    4    3  1    +1.1681    +1.1485    +1.1684  -1.9928e-02      0.222 
 118    0    4  5    -0.0000    +0.0029    +0.0077  -4.8441e-03      0.217 
  39    0   39  6    +1.0803    +1.0648    +1.0805  -1.5778e-02      0.217 
 343   13    9  1    -0.6917    -0.6766    -0.6935  +1.6905e-02      0.215 
 426   15    1  4    -0.5537    -0.5626    -0.5477  -1.4910e-02      0.214 
 115    0    1  5    +2.0981    +2.0580    +2.0802  -2.2204e-02      0.212 
 348   17    1  1    +0.6609    +0.6427    +0.6581  -1.5382e-02      0.210 
  66    0    9  2    -0.0850    -0.0786    -0.0824  +3.8209e-03      0.209 
 174    3    4  1    -1.1514    -1.1704    -1.1517  -1.8694e-02      0.209 
 180    9   10  1    +0.5112    +0.4976    +0.5120  -1.4460e-02      0.209 
 193    7    8  1    -0.9622    -0.9470    -0.9646  +1.7573e-02      0.208 
  46    0   46  6    +1.1050    +1.1207    +1.1054  +1.5246e-02      0.207 
  69    0   12  2    +0.8320    +0.8237    +0.8373  -1.3648e-02      0.207 
   1    0    1  6    +1.0400    +1.0540    +1.0393  +1.4685e-02      0.205 
 197   12   16  1    +0.7629    +0.7807    +0.7651  +1.5580e-02      0.201 
  17    0   17  6    +1.0264    +1.0118    +1.0260  -1.4224e-02      0.200 
   3    0    3  6    +1.0154    +1.0293    +1.0151  +1.4143e-02      0.200 
 176    4    6  1    -0.7337    -0.7508    -0.7350  -1.5820e-02      0.199 
  57    0   57  6    +1.0742    +1.0896    +1.0755  +1.4091e-02      0.196 
  62    0    5  2    -0.0180    -0.0140    -0.0189  +4.8984e-03      0.193 
  18    0   18  6    +1.0595    +1.0705    +1.0568  +1.3711e-02      0.191 
  43    0   43  6    +1.0535    +1.0406    +1.0542  -1.3642e-02      0.190 
  37    0   37  6    +1.0809    +1.0949    +1.0812  +1.3779e-02      0.189 
  42    0   42  6    +1.0671    +1.0546    +1.0682  -1.3563e-02      0.189 
 392   48   47  1    +0.0545    +0.0604    +0.0530  +7.4520e-03      0.188 
 195   11   13  1    +0.6690    +0.6513    +0.6652  -1.3875e-02      0.187 
 332    2    1  1    +1.2477    +1.2321    +1.2493  -1.7208e-02      0.184 
 304   22   38  4    -0.0705    -0.0662    -0.0734  +7.1943e-03      0.184 
  56    0   56  6    +1.0724    +1.0601    +1.0733  -1.3205e-02      0.184 
  28    0   28  6    +1.0511    +1.0385    +1.0516  -1.3023e-02      0.181 
  19    0   19  6    +1.0512    +1.0359    +1.0487  -1.2761e-02      0.181 
  15    0   15  6    +1.0116    +0.9988    +1.0115  -1.2679e-02      0.180 
  33    0   33  6    +1.1053    +1.0921    +1.1050  -1.2910e-02      0.179 
  44    0   44  6    +1.0784    +1.0660    +1.0789  -1.2925e-02      0.178 
  30    0   30  6    +1.1235    +1.1373    +1.1244  +1.2834e-02      0.176 
 352    6    5  1    +0.5245    +0.5383    +0.5264  +1.1954e-02      0.176 
 353    8    7  1    +0.9760    +0.9933    +0.9785  +1.4841e-02      0.175 
 177    6    7  1    -0.6302    -0.6476    -0.6348  -1.2823e-02      0.174 
 259    8    9  4    -0.3455    -0.3549    -0.3453  -9.5715e-03      0.174 
 340   10    9  1    -0.5012    -0.4900    -0.5020  +1.1933e-02      0.173 
 170    0   56  5    -0.0030    +0.0016    -0.0030  +4.6862e-03      0.172 
  31    0   31  6    +1.1139    +1.1009    +1.1134  -1.2430e-02      0.172 
  21    0   21  6    +1.0877    +1.0753    +1.0878  -1.2506e-02      0.171 
   6    0    6  6    +1.0107    +1.0231    +1.0111  +1.2067e-02      0.171 
  26    0   26  6    +1.0445    +1.0575    +1.0453  +1.2233e-02      0.171 
 291   28   29  4    +0.1088    +0.1017    +0.1091  -7.3461e-03      0.171 
 337    7    6  1    +0.6384    +0.6556    +0.6431  +1.2514e-02      0.169 
 218   34   35  1    +0.0088    +0.0056    +0.0117  -6.0895e-03      0.169 
 189    3   15  1    +0.2400    +0.2304    +0.2389  -8.5382e-03      0.167 
  67    0   10  2    -0.1190    -0.1225    -0.1173  -5.1472e-03      0.163 
 178    6    8  1    -0.7588    -0.7754    -0.7624  -1.3018e-02      0.162 
   9    0    9  6    +1.0045    +0.9936    +1.0049  -1.1244e-02      0.160 
 434   12   10  4    +0.0973    +0.1039    +0.0967  +7.1983e-03      0.159 
 289   26   27  4    +0.1331    +0.1272    +0.1348  -7.5549e-03      0.159 
 365   24   23  1    +0.1718    +0.1799    +0.1721  +7.7200e-03      0.158 
 113    0   56  2    -0.0110    -0.0071    -0.0115  +4.3616e-03      0.157 
  11    0   11  6    +1.0051    +1.0164    +1.0054  +1.1015e-02      0.157 
 312   47   48  4    +0.1453    +0.1396    +0.1468  -7.1661e-03      0.156 
 357   16   12  1    -0.7521    -0.7663    -0.7543  -1.2053e-02      0.156 
 229   15   45  1    -0.1953    -0.2033    -0.1954  -7.8669e-03      0.156 
 389   45   15  1    +0.1953    +0.1876    +0.1954  -7.8131e-03      0.154 
 341   11    9  1    -0.7349    -0.7536    -0.7416  -1.2008e-02      0.154 
 273    7    8  4    +0.2862    +0.2953    +0.2869  +8.3872e-03      0.153 
  49    0   49  6    +1.0983    +1.1100    +1.0988  +1.1200e-02      0.152 
 248   57   56  1    -0.0175    -0.0128    -0.0185  +5.7225e-03      0.151 
 258    6    8  4    +0.2133    +0.2063    +0.2145  -8.2081e-03      0.151 
 384   38   22  1    -0.1553    -0.1487    -0.1554  +6.6919e-03      0.150 
 482   43   11  4    +0.0304    +0.0271    +0.0328  -5.7197e-03      0.150 
 373   30   25  1    -0.0290    -0.0331    -0.0274  -5.6874e-03      0.150 
 106    0   49  2    -0.0250    -0.0293    -0.0253  -3.9972e-03      0.149 
 370   28   27  1    +0.2361    +0.2305    +0.2382  -7.7734e-03      0.149 
 438   17   12  4    +0.2528    +0.2426    +0.2510  -8.3427e-03      0.149 
 122    0    8  5    -0.7347    -0.7254    -0.7352  +9.7479e-03      0.149 
  38    0   38  6    +1.0863    +1.0758    +1.0867  -1.0871e-02      0.149 
  45    0   45  6    +1.0628    +1.0522    +1.0629  -1.0721e-02      0.148 
 153    0   39  5    +0.0000    +0.0043    -0.0006  +4.9292e-03      0.146 
  40    0   40  6    +1.0778    +1.0886    +1.0780  +1.0590e-02      0.146 
 380   37   36  1    -0.0146    -0.0188    -0.0136  -5.1822e-03      0.146 
 147    0   33  5    -0.0030    -0.0073    -0.0021  -5.1461e-03      0.144 
  75    0   18  2    -0.0380    -0.0325    -0.0372  +4.6832e-03      0.144 
 432    6    5  4    -0.2304    -0.2375    -0.2299  -7.5933e-03      0.144 
...